<routes>
            <vType accel="1.0" decel="4.5" id="standard_car" length="5.0" minGap="2.5" maxSpeed="25" sigma="0.5" />

            <route id="W_N" edges="W2TL TL2N"/>
            <route id="W_E" edges="W2TL TL2E"/>
            <route id="W_S" edges="W2TL TL2S"/>
            <route id="N_W" edges="N2TL TL2W"/>
            <route id="N_E" edges="N2TL TL2E"/>
            <route id="N_S" edges="N2TL TL2S"/>
            <route id="E_W" edges="E2TL TL2W"/>
            <route id="E_N" edges="E2TL TL2N"/>
            <route id="E_S" edges="E2TL TL2S"/>
            <route id="S_W" edges="S2TL TL2W"/>
            <route id="S_N" edges="S2TL TL2N"/>
            <route id="S_E" edges="S2TL TL2E"/>
    <vehicle id="W_E_0" type="standard_car" route="W_E" depart="11.0" departLane="random" departSpeed="10" arrivalLane="0"> <stop lane="TL2E_0" endPos="750" duration="5"/> </vehicle>
    <vehicle id="N_S_1" type="standard_car" route="N_S" depart="24.0" departLane="random" departSpeed="10" arrivalLane="2"> <stop lane="TL2S_2" endPos="750" duration="5"/> </vehicle>
    <vehicle id="W_E_2" type="standard_car" route="W_E" depart="28.0" departLane="random" departSpeed="10" arrivalLane="3"> <stop lane="TL2E_3" endPos="750" duration="5"/> </vehicle>
    <vehicle id="N_S_3" type="standard_car" route="N_S" depart="42.0" departLane="random" departSpeed="10" arrivalLane="1"> <stop lane="TL2S_1" endPos="750" duration="5"/> </vehicle>
    <vehicle id="S_N_4" type="standard_car" route="S_N" depart="45.0" departLane="random" departSpeed="10" arrivalLane="1"> <stop lane="TL2N_1" endPos="750" duration="5"/> </vehicle>
    <vehicle id="N_W_5" type="standard_car" route="N_W" depart="52.0" departLane="random" departSpeed="10" arrivalLane="0"> <stop lane="TL2W_0" endPos="750" duration="5"/> </vehicle>
    <vehicle id="S_N_6" type="standard_car" route="S_N" depart="59.0" departLane="random" departSpeed="10" arrivalLane="1"> <stop lane="TL2N_1" endPos="750" duration="5"/> </vehicle>
    <vehicle id="N_S_7" type="standard_car" route="N_S" depart="59.0" departLane="random" departSpeed="10" arrivalLane="2"> <stop lane="TL2S_2" endPos="750" duration="5"/> </vehicle>
    <vehicle id="N_S_8" type="standard_car" route="N_S" depart="65.0" departLane="random" departSpeed="10" arrivalLane="3"> <stop lane="TL2S_3" endPos="750" duration="5"/> </vehicle>
    <vehicle id="W_N_9" type="standard_car" route="W_N" depart="72.0" departLane="random" departSpeed="10" arrivalLane="0"> <stop lane="TL2N_0" endPos="750" duration="5"/> </vehicle>
    <vehicle id="E_S_10" type="standard_car" route="E_S" depart="78.0" departLane="random" departSpeed="10" arrivalLane="0"> <stop lane="TL2S_0" endPos="750" duration="5"/> </vehicle>
    <vehicle id="N_S_11" type="standard_car" route="N_S" depart="83.0" departLane="random" departSpeed="10" arrivalLane="2"> <stop lane="TL2S_2" endPos="750" duration="5"/> </vehicle>
    <vehicle id="E_W_12" type="standard_car" route="E_W" depart="92.0" departLane="random" departSpeed="10" arrivalLane="3"> <stop lane="TL2W_3" endPos="750" duration="5"/> </vehicle>
    <vehicle id="S_N_13" type="standard_car" route="S_N" depart="108.0" departLane="random" departSpeed="10" arrivalLane="0"> <stop lane="TL2N_0" endPos="750" duration="6"/> </vehicle>
    <vehicle id="S_N_14" type="standard_car" route="S_N" depart="118.0" departLane="random" departSpeed="10" arrivalLane="0"> <stop lane="TL2N_0" endPos="750" duration="6"/> </vehicle>
    <vehicle id="S_N_15" type="standard_car" route="S_N" depart="120.0" departLane="random" departSpeed="10" arrivalLane="3"> <stop lane="TL2N_3" endPos="750" duration="6"/> </vehicle>
    <vehicle id="W_S_16" type="standard_car" route="W_S" depart="125.0" departLane="random" departSpeed="10" arrivalLane="3"> <stop lane="TL2S_3" endPos="750" duration="6"/> </vehicle>
    <vehicle id="S_N_17" type="standard_car" route="S_N" depart="125.0" departLane="random" departSpeed="10" arrivalLane="3"> <stop lane="TL2N_3" endPos="750" duration="6"/> </vehicle>
    <vehicle id="N_S_18" type="standard_car" route="N_S" depart="134.0" departLane="random" departSpeed="10" arrivalLane="1"> <stop lane="TL2S_1" endPos="750" duration="6"/> </vehicle>
    <vehicle id="N_S_19" type="standard_car" route="N_S" depart="135.0" departLane="random" departSpeed="10" arrivalLane="3"> <stop lane="TL2S_3" endPos="750" duration="6"/> </vehicle>
    <vehicle id="S_E_20" type="standard_car" route="S_E" depart="142.0" departLane="random" departSpeed="10" arrivalLane="0"> <stop lane="TL2E_0" endPos="750" duration="6"/> </vehicle>
    <vehicle id="W_E_21" type="standard_car" route="W_E" depart="144.0" departLane="random" departSpeed="10" arrivalLane="0"> <stop lane="TL2E_0" endPos="750" duration="6"/> </vehicle>
    <vehicle id="N_S_22" type="standard_car" route="N_S" depart="145.0" departLane="random" departSpeed="10" arrivalLane="0"> <stop lane="TL2S_0" endPos="750" duration="6"/> </vehicle>
    <vehicle id="N_S_23" type="standard_car" route="N_S" depart="155.0" departLane="random" departSpeed="10" arrivalLane="2"> <stop lane="TL2S_2" endPos="750" duration="6"/> </vehicle>
    <vehicle id="S_N_24" type="standard_car" route="S_N" depart="162.0" departLane="random" departSpeed="10" arrivalLane="0"> <stop lane="TL2N_0" endPos="750" duration="6"/> </vehicle>
    <vehicle id="E_W_25" type="standard_car" route="E_W" depart="163.0" departLane="random" departSpeed="10" arrivalLane="2"> <stop lane="TL2W_2" endPos="750" duration="6"/> </vehicle>
    <vehicle id="W_N_26" type="standard_car" route="W_N" depart="167.0" departLane="random" departSpeed="10" arrivalLane="2"> <stop lane="TL2N_2" endPos="750" duration="6"/> </vehicle>
    <vehicle id="N_S_27" type="standard_car" route="N_S" depart="169.0" departLane="random" departSpeed="10" arrivalLane="1"> <stop lane="TL2S_1" endPos="750" duration="6"/> </vehicle>
    <vehicle id="W_E_28" type="standard_car" route="W_E" depart="170.0" departLane="random" departSpeed="10" arrivalLane="0"> <stop lane="TL2E_0" endPos="750" duration="6"/> </vehicle>
    <vehicle id="S_N_29" type="standard_car" route="S_N" depart="171.0" departLane="random" departSpeed="10" arrivalLane="0"> <stop lane="TL2N_0" endPos="750" duration="6"/> </vehicle>
    <vehicle id="W_E_30" type="standard_car" route="W_E" depart="177.0" departLane="random" departSpeed="10" arrivalLane="1"> <stop lane="TL2E_1" endPos="750" duration="6"/> </vehicle>
    <vehicle id="W_E_31" type="standard_car" route="W_E" depart="178.0" departLane="random" departSpeed="10" arrivalLane="2"> <stop lane="TL2E_2" endPos="750" duration="6"/> </vehicle>
    <vehicle id="E_W_32" type="standard_car" route="E_W" depart="179.0" departLane="random" departSpeed="10" arrivalLane="1"> <stop lane="TL2W_1" endPos="750" duration="6"/> </vehicle>
    <vehicle id="E_W_33" type="standard_car" route="E_W" depart="179.0" departLane="random" departSpeed="10" arrivalLane="0"> <stop lane="TL2W_0" endPos="750" duration="6"/> </vehicle>
    <vehicle id="E_W_34" type="standard_car" route="E_W" depart="185.0" departLane="random" departSpeed="10" arrivalLane="2"> <stop lane="TL2W_2" endPos="750" duration="6"/> </vehicle>
    <vehicle id="W_E_35" type="standard_car" route="W_E" depart="196.0" departLane="random" departSpeed="10" arrivalLane="3"> <stop lane="TL2E_3" endPos="750" duration="6"/> </vehicle>
    <vehicle id="S_E_36" type="standard_car" route="S_E" depart="199.0" departLane="random" departSpeed="10" arrivalLane="2"> <stop lane="TL2E_2" endPos="750" duration="6"/> </vehicle>
    <vehicle id="N_S_37" type="standard_car" route="N_S" depart="203.0" departLane="random" departSpeed="10" arrivalLane="3"> <stop lane="TL2S_3" endPos="750" duration="6"/> </vehicle>
    <vehicle id="E_W_38" type="standard_car" route="E_W" depart="207.0" departLane="random" departSpeed="10" arrivalLane="0"> <stop lane="TL2W_0" endPos="750" duration="6"/> </vehicle>
    <vehicle id="N_S_39" type="standard_car" route="N_S" depart="215.0" departLane="random" departSpeed="10" arrivalLane="3"> <stop lane="TL2S_3" endPos="750" duration="6"/> </vehicle>
    <vehicle id="W_E_40" type="standard_car" route="W_E" depart="217.0" departLane="random" departSpeed="10" arrivalLane="0"> <stop lane="TL2E_0" endPos="750" duration="6"/> </vehicle>
    <vehicle id="N_S_41" type="standard_car" route="N_S" depart="218.0" departLane="random" departSpeed="10" arrivalLane="1"> <stop lane="TL2S_1" endPos="750" duration="6"/> </vehicle>
    <vehicle id="N_S_42" type="standard_car" route="N_S" depart="219.0" departLane="random" departSpeed="10" arrivalLane="1"> <stop lane="TL2S_1" endPos="750" duration="6"/> </vehicle>
    <vehicle id="N_S_43" type="standard_car" route="N_S" depart="219.0" departLane="random" departSpeed="10" arrivalLane="0"> <stop lane="TL2S_0" endPos="750" duration="6"/> </vehicle>
    <vehicle id="N_W_44" type="standard_car" route="N_W" depart="219.0" departLane="random" departSpeed="10" arrivalLane="2"> <stop lane="TL2W_2" endPos="750" duration="6"/> </vehicle>
    <vehicle id="S_N_45" type="standard_car" route="S_N" depart="220.0" departLane="random" departSpeed="10" arrivalLane="1"> <stop lane="TL2N_1" endPos="750" duration="6"/> </vehicle>
    <vehicle id="S_N_46" type="standard_car" route="S_N" depart="221.0" departLane="random" departSpeed="10" arrivalLane="3"> <stop lane="TL2N_3" endPos="750" duration="6"/> </vehicle>
    <vehicle id="N_S_47" type="standard_car" route="N_S" depart="222.0" departLane="random" departSpeed="10" arrivalLane="3"> <stop lane="TL2S_3" endPos="750" duration="6"/> </vehicle>
    <vehicle id="E_W_48" type="standard_car" route="E_W" depart="223.0" departLane="random" departSpeed="10" arrivalLane="0"> <stop lane="TL2W_0" endPos="750" duration="6"/> </vehicle>
    <vehicle id="W_E_49" type="standard_car" route="W_E" depart="223.0" departLane="random" departSpeed="10" arrivalLane="2"> <stop lane="TL2E_2" endPos="750" duration="6"/> </vehicle>
    <vehicle id="W_E_50" type="standard_car" route="W_E" depart="223.0" departLane="random" departSpeed="10" arrivalLane="2"> <stop lane="TL2E_2" endPos="750" duration="6"/> </vehicle>
    <vehicle id="E_W_51" type="standard_car" route="E_W" depart="230.0" departLane="random" departSpeed="10" arrivalLane="2"> <stop lane="TL2W_2" endPos="750" duration="6"/> </vehicle>
    <vehicle id="E_W_52" type="standard_car" route="E_W" depart="230.0" departLane="random" departSpeed="10" arrivalLane="1"> <stop lane="TL2W_1" endPos="750" duration="6"/> </vehicle>
    <vehicle id="E_W_53" type="standard_car" route="E_W" depart="231.0" departLane="random" departSpeed="10" arrivalLane="3"> <stop lane="TL2W_3" endPos="750" duration="6"/> </vehicle>
    <vehicle id="W_S_54" type="standard_car" route="W_S" depart="231.0" departLane="random" departSpeed="10" arrivalLane="0"> <stop lane="TL2S_0" endPos="750" duration="6"/> </vehicle>
    <vehicle id="N_W_55" type="standard_car" route="N_W" depart="234.0" departLane="random" departSpeed="10" arrivalLane="2"> <stop lane="TL2W_2" endPos="750" duration="6"/> </vehicle>
    <vehicle id="W_E_56" type="standard_car" route="W_E" depart="234.0" departLane="random" departSpeed="10" arrivalLane="3"> <stop lane="TL2E_3" endPos="750" duration="6"/> </vehicle>
    <vehicle id="W_E_57" type="standard_car" route="W_E" depart="235.0" departLane="random" departSpeed="10" arrivalLane="1"> <stop lane="TL2E_1" endPos="750" duration="6"/> </vehicle>
    <vehicle id="W_E_58" type="standard_car" route="W_E" depart="236.0" departLane="random" departSpeed="10" arrivalLane="0"> <stop lane="TL2E_0" endPos="750" duration="6"/> </vehicle>
    <vehicle id="N_S_59" type="standard_car" route="N_S" depart="237.0" departLane="random" departSpeed="10" arrivalLane="2"> <stop lane="TL2S_2" endPos="750" duration="6"/> </vehicle>
    <vehicle id="S_N_60" type="standard_car" route="S_N" depart="238.0" departLane="random" departSpeed="10" arrivalLane="0"> <stop lane="TL2N_0" endPos="750" duration="6"/> </vehicle>
    <vehicle id="E_W_61" type="standard_car" route="E_W" depart="238.0" departLane="random" departSpeed="10" arrivalLane="2"> <stop lane="TL2W_2" endPos="750" duration="6"/> </vehicle>
    <vehicle id="E_W_62" type="standard_car" route="E_W" depart="239.0" departLane="random" departSpeed="10" arrivalLane="3"> <stop lane="TL2W_3" endPos="750" duration="6"/> </vehicle>
    <vehicle id="E_W_63" type="standard_car" route="E_W" depart="241.0" departLane="random" departSpeed="10" arrivalLane="3"> <stop lane="TL2W_3" endPos="750" duration="6"/> </vehicle>
    <vehicle id="S_N_64" type="standard_car" route="S_N" depart="242.0" departLane="random" departSpeed="10" arrivalLane="2"> <stop lane="TL2N_2" endPos="750" duration="6"/> </vehicle>
    <vehicle id="E_N_65" type="standard_car" route="E_N" depart="243.0" departLane="random" departSpeed="10" arrivalLane="0"> <stop lane="TL2N_0" endPos="750" duration="6"/> </vehicle>
    <vehicle id="W_E_66" type="standard_car" route="W_E" depart="250.0" departLane="random" departSpeed="10" arrivalLane="2"> <stop lane="TL2E_2" endPos="750" duration="6"/> </vehicle>
    <vehicle id="E_W_67" type="standard_car" route="E_W" depart="250.0" departLane="random" departSpeed="10" arrivalLane="0"> <stop lane="TL2W_0" endPos="750" duration="6"/> </vehicle>
    <vehicle id="S_N_68" type="standard_car" route="S_N" depart="250.0" departLane="random" departSpeed="10" arrivalLane="1"> <stop lane="TL2N_1" endPos="750" duration="6"/> </vehicle>
    <vehicle id="N_E_69" type="standard_car" route="N_E" depart="251.0" departLane="random" departSpeed="10" arrivalLane="1"> <stop lane="TL2E_1" endPos="750" duration="6"/> </vehicle>
    <vehicle id="W_E_70" type="standard_car" route="W_E" depart="252.0" departLane="random" departSpeed="10" arrivalLane="3"> <stop lane="TL2E_3" endPos="750" duration="6"/> </vehicle>
    <vehicle id="E_W_71" type="standard_car" route="E_W" depart="254.0" departLane="random" departSpeed="10" arrivalLane="1"> <stop lane="TL2W_1" endPos="750" duration="6"/> </vehicle>
    <vehicle id="W_E_72" type="standard_car" route="W_E" depart="254.0" departLane="random" departSpeed="10" arrivalLane="1"> <stop lane="TL2E_1" endPos="750" duration="6"/> </vehicle>
    <vehicle id="E_W_73" type="standard_car" route="E_W" depart="255.0" departLane="random" departSpeed="10" arrivalLane="3"> <stop lane="TL2W_3" endPos="750" duration="6"/> </vehicle>
    <vehicle id="N_S_74" type="standard_car" route="N_S" depart="257.0" departLane="random" departSpeed="10" arrivalLane="3"> <stop lane="TL2S_3" endPos="750" duration="6"/> </vehicle>
    <vehicle id="W_E_75" type="standard_car" route="W_E" depart="257.0" departLane="random" departSpeed="10" arrivalLane="2"> <stop lane="TL2E_2" endPos="750" duration="6"/> </vehicle>
    <vehicle id="E_S_76" type="standard_car" route="E_S" depart="257.0" departLane="random" departSpeed="10" arrivalLane="0"> <stop lane="TL2S_0" endPos="750" duration="6"/> </vehicle>
    <vehicle id="W_E_77" type="standard_car" route="W_E" depart="258.0" departLane="random" departSpeed="10" arrivalLane="3"> <stop lane="TL2E_3" endPos="750" duration="6"/> </vehicle>
    <vehicle id="S_N_78" type="standard_car" route="S_N" depart="259.0" departLane="random" departSpeed="10" arrivalLane="1"> <stop lane="TL2N_1" endPos="750" duration="6"/> </vehicle>
    <vehicle id="W_E_79" type="standard_car" route="W_E" depart="261.0" departLane="random" departSpeed="10" arrivalLane="3"> <stop lane="TL2E_3" endPos="750" duration="6"/> </vehicle>
    <vehicle id="N_S_80" type="standard_car" route="N_S" depart="262.0" departLane="random" departSpeed="10" arrivalLane="2"> <stop lane="TL2S_2" endPos="750" duration="6"/> </vehicle>
    <vehicle id="E_S_81" type="standard_car" route="E_S" depart="263.0" departLane="random" departSpeed="10" arrivalLane="2"> <stop lane="TL2S_2" endPos="750" duration="6"/> </vehicle>
    <vehicle id="W_E_82" type="standard_car" route="W_E" depart="263.0" departLane="random" departSpeed="10" arrivalLane="2"> <stop lane="TL2E_2" endPos="750" duration="6"/> </vehicle>
    <vehicle id="S_N_83" type="standard_car" route="S_N" depart="264.0" departLane="random" departSpeed="10" arrivalLane="1"> <stop lane="TL2N_1" endPos="750" duration="6"/> </vehicle>
    <vehicle id="N_S_84" type="standard_car" route="N_S" depart="264.0" departLane="random" departSpeed="10" arrivalLane="0"> <stop lane="TL2S_0" endPos="750" duration="6"/> </vehicle>
    <vehicle id="S_E_85" type="standard_car" route="S_E" depart="264.0" departLane="random" departSpeed="10" arrivalLane="3"> <stop lane="TL2E_3" endPos="750" duration="6"/> </vehicle>
    <vehicle id="N_S_86" type="standard_car" route="N_S" depart="266.0" departLane="random" departSpeed="10" arrivalLane="0"> <stop lane="TL2S_0" endPos="750" duration="6"/> </vehicle>
    <vehicle id="S_E_87" type="standard_car" route="S_E" depart="270.0" departLane="random" departSpeed="10" arrivalLane="3"> <stop lane="TL2E_3" endPos="750" duration="6"/> </vehicle>
    <vehicle id="S_N_88" type="standard_car" route="S_N" depart="271.0" departLane="random" departSpeed="10" arrivalLane="1"> <stop lane="TL2N_1" endPos="750" duration="6"/> </vehicle>
    <vehicle id="E_N_89" type="standard_car" route="E_N" depart="272.0" departLane="random" departSpeed="10" arrivalLane="0"> <stop lane="TL2N_0" endPos="750" duration="6"/> </vehicle>
    <vehicle id="E_W_90" type="standard_car" route="E_W" depart="273.0" departLane="random" departSpeed="10" arrivalLane="3"> <stop lane="TL2W_3" endPos="750" duration="6"/> </vehicle>
    <vehicle id="W_E_91" type="standard_car" route="W_E" depart="273.0" departLane="random" departSpeed="10" arrivalLane="3"> <stop lane="TL2E_3" endPos="750" duration="6"/> </vehicle>
    <vehicle id="N_S_92" type="standard_car" route="N_S" depart="274.0" departLane="random" departSpeed="10" arrivalLane="0"> <stop lane="TL2S_0" endPos="750" duration="6"/> </vehicle>
    <vehicle id="S_N_93" type="standard_car" route="S_N" depart="274.0" departLane="random" departSpeed="10" arrivalLane="2"> <stop lane="TL2N_2" endPos="750" duration="6"/> </vehicle>
    <vehicle id="E_S_94" type="standard_car" route="E_S" depart="275.0" departLane="random" departSpeed="10" arrivalLane="0"> <stop lane="TL2S_0" endPos="750" duration="6"/> </vehicle>
    <vehicle id="W_E_95" type="standard_car" route="W_E" depart="278.0" departLane="random" departSpeed="10" arrivalLane="0"> <stop lane="TL2E_0" endPos="750" duration="6"/> </vehicle>
    <vehicle id="N_S_96" type="standard_car" route="N_S" depart="280.0" departLane="random" departSpeed="10" arrivalLane="2"> <stop lane="TL2S_2" endPos="750" duration="6"/> </vehicle>
    <vehicle id="N_E_97" type="standard_car" route="N_E" depart="282.0" departLane="random" departSpeed="10" arrivalLane="0"> <stop lane="TL2E_0" endPos="750" duration="6"/> </vehicle>
    <vehicle id="E_W_98" type="standard_car" route="E_W" depart="283.0" departLane="random" departSpeed="10" arrivalLane="1"> <stop lane="TL2W_1" endPos="750" duration="6"/> </vehicle>
    <vehicle id="N_S_99" type="standard_car" route="N_S" depart="284.0" departLane="random" departSpeed="10" arrivalLane="2"> <stop lane="TL2S_2" endPos="750" duration="6"/> </vehicle>
    <vehicle id="N_E_100" type="standard_car" route="N_E" depart="287.0" departLane="random" departSpeed="10" arrivalLane="3"> <stop lane="TL2E_3" endPos="750" duration="6"/> </vehicle>
    <vehicle id="S_W_101" type="standard_car" route="S_W" depart="288.0" departLane="random" departSpeed="10" arrivalLane="0"> <stop lane="TL2W_0" endPos="750" duration="6"/> </vehicle>
    <vehicle id="W_S_102" type="standard_car" route="W_S" depart="289.0" departLane="random" departSpeed="10" arrivalLane="3"> <stop lane="TL2S_3" endPos="750" duration="6"/> </vehicle>
    <vehicle id="W_E_103" type="standard_car" route="W_E" depart="291.0" departLane="random" departSpeed="10" arrivalLane="2"> <stop lane="TL2E_2" endPos="750" duration="6"/> </vehicle>
    <vehicle id="N_S_104" type="standard_car" route="N_S" depart="292.0" departLane="random" departSpeed="10" arrivalLane="1"> <stop lane="TL2S_1" endPos="750" duration="6"/> </vehicle>
    <vehicle id="W_E_105" type="standard_car" route="W_E" depart="297.0" departLane="random" departSpeed="10" arrivalLane="2"> <stop lane="TL2E_2" endPos="750" duration="6"/> </vehicle>
    <vehicle id="E_W_106" type="standard_car" route="E_W" depart="298.0" departLane="random" departSpeed="10" arrivalLane="3"> <stop lane="TL2W_3" endPos="750" duration="6"/> </vehicle>
    <vehicle id="N_S_107" type="standard_car" route="N_S" depart="298.0" departLane="random" departSpeed="10" arrivalLane="2"> <stop lane="TL2S_2" endPos="750" duration="6"/> </vehicle>
    <vehicle id="E_W_108" type="standard_car" route="E_W" depart="299.0" departLane="random" departSpeed="10" arrivalLane="3"> <stop lane="TL2W_3" endPos="750" duration="6"/> </vehicle>
    <vehicle id="S_N_109" type="standard_car" route="S_N" depart="299.0" departLane="random" departSpeed="10" arrivalLane="3"> <stop lane="TL2N_3" endPos="750" duration="6"/> </vehicle>
    <vehicle id="E_W_110" type="standard_car" route="E_W" depart="302.0" departLane="random" departSpeed="10" arrivalLane="3"> <stop lane="TL2W_3" endPos="750" duration="7"/> </vehicle>
    <vehicle id="E_W_111" type="standard_car" route="E_W" depart="302.0" departLane="random" departSpeed="10" arrivalLane="1"> <stop lane="TL2W_1" endPos="750" duration="7"/> </vehicle>
    <vehicle id="S_N_112" type="standard_car" route="S_N" depart="304.0" departLane="random" departSpeed="10" arrivalLane="2"> <stop lane="TL2N_2" endPos="750" duration="7"/> </vehicle>
    <vehicle id="N_S_113" type="standard_car" route="N_S" depart="306.0" departLane="random" departSpeed="10" arrivalLane="1"> <stop lane="TL2S_1" endPos="750" duration="7"/> </vehicle>
    <vehicle id="N_S_114" type="standard_car" route="N_S" depart="306.0" departLane="random" departSpeed="10" arrivalLane="2"> <stop lane="TL2S_2" endPos="750" duration="7"/> </vehicle>
    <vehicle id="E_W_115" type="standard_car" route="E_W" depart="306.0" departLane="random" departSpeed="10" arrivalLane="2"> <stop lane="TL2W_2" endPos="750" duration="7"/> </vehicle>
    <vehicle id="W_E_116" type="standard_car" route="W_E" depart="307.0" departLane="random" departSpeed="10" arrivalLane="1"> <stop lane="TL2E_1" endPos="750" duration="7"/> </vehicle>
    <vehicle id="N_S_117" type="standard_car" route="N_S" depart="310.0" departLane="random" departSpeed="10" arrivalLane="0"> <stop lane="TL2S_0" endPos="750" duration="7"/> </vehicle>
    <vehicle id="E_S_118" type="standard_car" route="E_S" depart="310.0" departLane="random" departSpeed="10" arrivalLane="0"> <stop lane="TL2S_0" endPos="750" duration="7"/> </vehicle>
    <vehicle id="E_S_119" type="standard_car" route="E_S" depart="312.0" departLane="random" departSpeed="10" arrivalLane="2"> <stop lane="TL2S_2" endPos="750" duration="7"/> </vehicle>
    <vehicle id="W_E_120" type="standard_car" route="W_E" depart="313.0" departLane="random" departSpeed="10" arrivalLane="3"> <stop lane="TL2E_3" endPos="750" duration="7"/> </vehicle>
    <vehicle id="W_E_121" type="standard_car" route="W_E" depart="315.0" departLane="random" departSpeed="10" arrivalLane="1"> <stop lane="TL2E_1" endPos="750" duration="7"/> </vehicle>
    <vehicle id="W_E_122" type="standard_car" route="W_E" depart="317.0" departLane="random" departSpeed="10" arrivalLane="0"> <stop lane="TL2E_0" endPos="750" duration="7"/> </vehicle>
    <vehicle id="W_E_123" type="standard_car" route="W_E" depart="318.0" departLane="random" departSpeed="10" arrivalLane="0"> <stop lane="TL2E_0" endPos="750" duration="7"/> </vehicle>
    <vehicle id="N_S_124" type="standard_car" route="N_S" depart="318.0" departLane="random" departSpeed="10" arrivalLane="2"> <stop lane="TL2S_2" endPos="750" duration="7"/> </vehicle>
    <vehicle id="S_N_125" type="standard_car" route="S_N" depart="318.0" departLane="random" departSpeed="10" arrivalLane="0"> <stop lane="TL2N_0" endPos="750" duration="7"/> </vehicle>
    <vehicle id="N_E_126" type="standard_car" route="N_E" depart="320.0" departLane="random" departSpeed="10" arrivalLane="0"> <stop lane="TL2E_0" endPos="750" duration="7"/> </vehicle>
    <vehicle id="S_N_127" type="standard_car" route="S_N" depart="320.0" departLane="random" departSpeed="10" arrivalLane="2"> <stop lane="TL2N_2" endPos="750" duration="7"/> </vehicle>
    <vehicle id="S_N_128" type="standard_car" route="S_N" depart="321.0" departLane="random" departSpeed="10" arrivalLane="2"> <stop lane="TL2N_2" endPos="750" duration="7"/> </vehicle>
    <vehicle id="E_W_129" type="standard_car" route="E_W" depart="324.0" departLane="random" departSpeed="10" arrivalLane="1"> <stop lane="TL2W_1" endPos="750" duration="7"/> </vehicle>
    <vehicle id="S_N_130" type="standard_car" route="S_N" depart="325.0" departLane="random" departSpeed="10" arrivalLane="0"> <stop lane="TL2N_0" endPos="750" duration="7"/> </vehicle>
    <vehicle id="S_N_131" type="standard_car" route="S_N" depart="325.0" departLane="random" departSpeed="10" arrivalLane="3"> <stop lane="TL2N_3" endPos="750" duration="7"/> </vehicle>
    <vehicle id="N_W_132" type="standard_car" route="N_W" depart="327.0" departLane="random" departSpeed="10" arrivalLane="0"> <stop lane="TL2W_0" endPos="750" duration="7"/> </vehicle>
    <vehicle id="E_W_133" type="standard_car" route="E_W" depart="327.0" departLane="random" departSpeed="10" arrivalLane="2"> <stop lane="TL2W_2" endPos="750" duration="7"/> </vehicle>
    <vehicle id="N_S_134" type="standard_car" route="N_S" depart="328.0" departLane="random" departSpeed="10" arrivalLane="0"> <stop lane="TL2S_0" endPos="750" duration="7"/> </vehicle>
    <vehicle id="E_N_135" type="standard_car" route="E_N" depart="329.0" departLane="random" departSpeed="10" arrivalLane="1"> <stop lane="TL2N_1" endPos="750" duration="7"/> </vehicle>
    <vehicle id="W_S_136" type="standard_car" route="W_S" depart="330.0" departLane="random" departSpeed="10" arrivalLane="2"> <stop lane="TL2S_2" endPos="750" duration="7"/> </vehicle>
    <vehicle id="S_N_137" type="standard_car" route="S_N" depart="330.0" departLane="random" departSpeed="10" arrivalLane="0"> <stop lane="TL2N_0" endPos="750" duration="7"/> </vehicle>
    <vehicle id="W_E_138" type="standard_car" route="W_E" depart="332.0" departLane="random" departSpeed="10" arrivalLane="0"> <stop lane="TL2E_0" endPos="750" duration="7"/> </vehicle>
    <vehicle id="E_W_139" type="standard_car" route="E_W" depart="332.0" departLane="random" departSpeed="10" arrivalLane="0"> <stop lane="TL2W_0" endPos="750" duration="7"/> </vehicle>
    <vehicle id="S_N_140" type="standard_car" route="S_N" depart="334.0" departLane="random" departSpeed="10" arrivalLane="2"> <stop lane="TL2N_2" endPos="750" duration="7"/> </vehicle>
    <vehicle id="N_S_141" type="standard_car" route="N_S" depart="337.0" departLane="random" departSpeed="10" arrivalLane="3"> <stop lane="TL2S_3" endPos="750" duration="7"/> </vehicle>
    <vehicle id="W_S_142" type="standard_car" route="W_S" depart="337.0" departLane="random" departSpeed="10" arrivalLane="3"> <stop lane="TL2S_3" endPos="750" duration="7"/> </vehicle>
    <vehicle id="E_S_143" type="standard_car" route="E_S" depart="340.0" departLane="random" departSpeed="10" arrivalLane="2"> <stop lane="TL2S_2" endPos="750" duration="7"/> </vehicle>
    <vehicle id="W_N_144" type="standard_car" route="W_N" depart="340.0" departLane="random" departSpeed="10" arrivalLane="3"> <stop lane="TL2N_3" endPos="750" duration="7"/> </vehicle>
    <vehicle id="E_N_145" type="standard_car" route="E_N" depart="348.0" departLane="random" departSpeed="10" arrivalLane="1"> <stop lane="TL2N_1" endPos="750" duration="7"/> </vehicle>
    <vehicle id="N_S_146" type="standard_car" route="N_S" depart="350.0" departLane="random" departSpeed="10" arrivalLane="1"> <stop lane="TL2S_1" endPos="750" duration="7"/> </vehicle>
    <vehicle id="S_N_147" type="standard_car" route="S_N" depart="352.0" departLane="random" departSpeed="10" arrivalLane="3"> <stop lane="TL2N_3" endPos="750" duration="7"/> </vehicle>
    <vehicle id="N_S_148" type="standard_car" route="N_S" depart="356.0" departLane="random" departSpeed="10" arrivalLane="2"> <stop lane="TL2S_2" endPos="750" duration="7"/> </vehicle>
    <vehicle id="E_W_149" type="standard_car" route="E_W" depart="357.0" departLane="random" departSpeed="10" arrivalLane="2"> <stop lane="TL2W_2" endPos="750" duration="7"/> </vehicle>
    <vehicle id="E_W_150" type="standard_car" route="E_W" depart="358.0" departLane="random" departSpeed="10" arrivalLane="1"> <stop lane="TL2W_1" endPos="750" duration="7"/> </vehicle>
    <vehicle id="W_E_151" type="standard_car" route="W_E" depart="360.0" departLane="random" departSpeed="10" arrivalLane="3"> <stop lane="TL2E_3" endPos="750" duration="7"/> </vehicle>
    <vehicle id="N_S_152" type="standard_car" route="N_S" depart="361.0" departLane="random" departSpeed="10" arrivalLane="0"> <stop lane="TL2S_0" endPos="750" duration="7"/> </vehicle>
    <vehicle id="S_N_153" type="standard_car" route="S_N" depart="362.0" departLane="random" departSpeed="10" arrivalLane="0"> <stop lane="TL2N_0" endPos="750" duration="7"/> </vehicle>
    <vehicle id="E_W_154" type="standard_car" route="E_W" depart="362.0" departLane="random" departSpeed="10" arrivalLane="1"> <stop lane="TL2W_1" endPos="750" duration="7"/> </vehicle>
    <vehicle id="E_W_155" type="standard_car" route="E_W" depart="362.0" departLane="random" departSpeed="10" arrivalLane="0"> <stop lane="TL2W_0" endPos="750" duration="7"/> </vehicle>
    <vehicle id="W_E_156" type="standard_car" route="W_E" depart="366.0" departLane="random" departSpeed="10" arrivalLane="3"> <stop lane="TL2E_3" endPos="750" duration="7"/> </vehicle>
    <vehicle id="N_S_157" type="standard_car" route="N_S" depart="366.0" departLane="random" departSpeed="10" arrivalLane="1"> <stop lane="TL2S_1" endPos="750" duration="7"/> </vehicle>