<routes>
            <vType accel="1.0" decel="4.5" id="standard_car" length="5.0" minGap="2.5" maxSpeed="25" sigma="0.5" />

            <route id="W_N" edges="W2TL TL2N"/>
            <route id="W_E" edges="W2TL TL2E"/>
            <route id="W_S" edges="W2TL TL2S"/>
            <route id="N_W" edges="N2TL TL2W"/>
            <route id="N_E" edges="N2TL TL2E"/>
            <route id="N_S" edges="N2TL TL2S"/>
            <route id="E_W" edges="E2TL TL2W"/>
            <route id="E_N" edges="E2TL TL2N"/>
            <route id="E_S" edges="E2TL TL2S"/>
            <route id="S_W" edges="S2TL TL2W"/>
            <route id="S_N" edges="S2TL TL2N"/>
            <route id="S_E" edges="S2TL TL2E"/>
    <vehicle id="E_W_0" type="standard_car" route="E_W" depart="11.0" departLane="random" departSpeed="10" arrivalLane="0"> <stop lane="TL2W_0" endPos="750" duration="5"/> </vehicle>
    <vehicle id="W_E_1" type="standard_car" route="W_E" depart="12.0" departLane="random" departSpeed="10" arrivalLane="1"> <stop lane="TL2E_1" endPos="750" duration="5"/> </vehicle>
    <vehicle id="S_N_2" type="standard_car" route="S_N" depart="26.0" departLane="random" departSpeed="10" arrivalLane="0"> <stop lane="TL2N_0" endPos="750" duration="5"/> </vehicle>
    <vehicle id="S_N_3" type="standard_car" route="S_N" depart="32.0" departLane="random" departSpeed="10" arrivalLane="1"> <stop lane="TL2N_1" endPos="750" duration="5"/> </vehicle>
    <vehicle id="W_E_4" type="standard_car" route="W_E" depart="35.0" departLane="random" departSpeed="10" arrivalLane="1"> <stop lane="TL2E_1" endPos="750" duration="5"/> </vehicle>
    <vehicle id="N_W_5" type="standard_car" route="N_W" depart="41.0" departLane="random" departSpeed="10" arrivalLane="2"> <stop lane="TL2W_2" endPos="750" duration="5"/> </vehicle>
    <vehicle id="E_W_6" type="standard_car" route="E_W" depart="50.0" departLane="random" departSpeed="10" arrivalLane="2"> <stop lane="TL2W_2" endPos="750" duration="5"/> </vehicle>
    <vehicle id="W_S_7" type="standard_car" route="W_S" depart="54.0" departLane="random" departSpeed="10" arrivalLane="3"> <stop lane="TL2S_3" endPos="750" duration="5"/> </vehicle>
    <vehicle id="W_E_8" type="standard_car" route="W_E" depart="56.0" departLane="random" departSpeed="10" arrivalLane="1"> <stop lane="TL2E_1" endPos="750" duration="5"/> </vehicle>
    <vehicle id="W_E_9" type="standard_car" route="W_E" depart="58.0" departLane="random" departSpeed="10" arrivalLane="3"> <stop lane="TL2E_3" endPos="750" duration="5"/> </vehicle>
    <vehicle id="S_N_10" type="standard_car" route="S_N" depart="60.0" departLane="random" departSpeed="10" arrivalLane="1"> <stop lane="TL2N_1" endPos="750" duration="5"/> </vehicle>
    <vehicle id="E_W_11" type="standard_car" route="E_W" depart="61.0" departLane="random" departSpeed="10" arrivalLane="2"> <stop lane="TL2W_2" endPos="750" duration="5"/> </vehicle>
    <vehicle id="N_W_12" type="standard_car" route="N_W" depart="70.0" departLane="random" departSpeed="10" arrivalLane="2"> <stop lane="TL2W_2" endPos="750" duration="5"/> </vehicle>
    <vehicle id="E_W_13" type="standard_car" route="E_W" depart="71.0" departLane="random" departSpeed="10" arrivalLane="0"> <stop lane="TL2W_0" endPos="750" duration="5"/> </vehicle>
    <vehicle id="N_S_14" type="standard_car" route="N_S" depart="82.0" departLane="random" departSpeed="10" arrivalLane="1"> <stop lane="TL2S_1" endPos="750" duration="5"/> </vehicle>
    <vehicle id="W_E_15" type="standard_car" route="W_E" depart="84.0" departLane="random" departSpeed="10" arrivalLane="3"> <stop lane="TL2E_3" endPos="750" duration="5"/> </vehicle>
    <vehicle id="S_N_16" type="standard_car" route="S_N" depart="92.0" departLane="random" departSpeed="10" arrivalLane="1"> <stop lane="TL2N_1" endPos="750" duration="5"/> </vehicle>
    <vehicle id="W_E_17" type="standard_car" route="W_E" depart="93.0" departLane="random" departSpeed="10" arrivalLane="3"> <stop lane="TL2E_3" endPos="750" duration="5"/> </vehicle>
    <vehicle id="E_W_18" type="standard_car" route="E_W" depart="93.0" departLane="random" departSpeed="10" arrivalLane="1"> <stop lane="TL2W_1" endPos="750" duration="5"/> </vehicle>
    <vehicle id="E_W_19" type="standard_car" route="E_W" depart="94.0" departLane="random" departSpeed="10" arrivalLane="2"> <stop lane="TL2W_2" endPos="750" duration="5"/> </vehicle>
    <vehicle id="S_W_20" type="standard_car" route="S_W" depart="96.0" departLane="random" departSpeed="10" arrivalLane="1"> <stop lane="TL2W_1" endPos="750" duration="5"/> </vehicle>
    <vehicle id="N_E_21" type="standard_car" route="N_E" depart="97.0" departLane="random" departSpeed="10" arrivalLane="1"> <stop lane="TL2E_1" endPos="750" duration="5"/> </vehicle>
    <vehicle id="W_E_22" type="standard_car" route="W_E" depart="98.0" departLane="random" departSpeed="10" arrivalLane="2"> <stop lane="TL2E_2" endPos="750" duration="5"/> </vehicle>
    <vehicle id="N_S_23" type="standard_car" route="N_S" depart="99.0" departLane="random" departSpeed="10" arrivalLane="1"> <stop lane="TL2S_1" endPos="750" duration="5"/> </vehicle>
    <vehicle id="W_E_24" type="standard_car" route="W_E" depart="100.0" departLane="random" departSpeed="10" arrivalLane="0"> <stop lane="TL2E_0" endPos="750" duration="5"/> </vehicle>
    <vehicle id="W_E_25" type="standard_car" route="W_E" depart="100.0" departLane="random" departSpeed="10" arrivalLane="1"> <stop lane="TL2E_1" endPos="750" duration="5"/> </vehicle>
    <vehicle id="E_W_26" type="standard_car" route="E_W" depart="104.0" departLane="random" departSpeed="10" arrivalLane="0"> <stop lane="TL2W_0" endPos="750" duration="5"/> </vehicle>
    <vehicle id="W_S_27" type="standard_car" route="W_S" depart="106.0" departLane="random" departSpeed="10" arrivalLane="3"> <stop lane="TL2S_3" endPos="750" duration="5"/> </vehicle>
    <vehicle id="N_S_28" type="standard_car" route="N_S" depart="107.0" departLane="random" departSpeed="10" arrivalLane="1"> <stop lane="TL2S_1" endPos="750" duration="5"/> </vehicle>
    <vehicle id="E_W_29" type="standard_car" route="E_W" depart="115.0" departLane="random" departSpeed="10" arrivalLane="2"> <stop lane="TL2W_2" endPos="750" duration="6"/> </vehicle>
    <vehicle id="S_N_30" type="standard_car" route="S_N" depart="120.0" departLane="random" departSpeed="10" arrivalLane="1"> <stop lane="TL2N_1" endPos="750" duration="6"/> </vehicle>
    <vehicle id="W_S_31" type="standard_car" route="W_S" depart="120.0" departLane="random" departSpeed="10" arrivalLane="1"> <stop lane="TL2S_1" endPos="750" duration="6"/> </vehicle>
    <vehicle id="E_W_32" type="standard_car" route="E_W" depart="122.0" departLane="random" departSpeed="10" arrivalLane="0"> <stop lane="TL2W_0" endPos="750" duration="6"/> </vehicle>
    <vehicle id="N_S_33" type="standard_car" route="N_S" depart="122.0" departLane="random" departSpeed="10" arrivalLane="0"> <stop lane="TL2S_0" endPos="750" duration="6"/> </vehicle>
    <vehicle id="W_E_34" type="standard_car" route="W_E" depart="129.0" departLane="random" departSpeed="10" arrivalLane="3"> <stop lane="TL2E_3" endPos="750" duration="6"/> </vehicle>
    <vehicle id="S_N_35" type="standard_car" route="S_N" depart="130.0" departLane="random" departSpeed="10" arrivalLane="2"> <stop lane="TL2N_2" endPos="750" duration="6"/> </vehicle>
    <vehicle id="E_N_36" type="standard_car" route="E_N" depart="130.0" departLane="random" departSpeed="10" arrivalLane="1"> <stop lane="TL2N_1" endPos="750" duration="6"/> </vehicle>
    <vehicle id="E_N_37" type="standard_car" route="E_N" depart="130.0" departLane="random" departSpeed="10" arrivalLane="1"> <stop lane="TL2N_1" endPos="750" duration="6"/> </vehicle>
    <vehicle id="E_W_38" type="standard_car" route="E_W" depart="136.0" departLane="random" departSpeed="10" arrivalLane="0"> <stop lane="TL2W_0" endPos="750" duration="6"/> </vehicle>
    <vehicle id="E_W_39" type="standard_car" route="E_W" depart="137.0" departLane="random" departSpeed="10" arrivalLane="2"> <stop lane="TL2W_2" endPos="750" duration="6"/> </vehicle>
    <vehicle id="N_W_40" type="standard_car" route="N_W" depart="139.0" departLane="random" departSpeed="10" arrivalLane="0"> <stop lane="TL2W_0" endPos="750" duration="6"/> </vehicle>
    <vehicle id="W_E_41" type="standard_car" route="W_E" depart="141.0" departLane="random" departSpeed="10" arrivalLane="1"> <stop lane="TL2E_1" endPos="750" duration="6"/> </vehicle>
    <vehicle id="E_W_42" type="standard_car" route="E_W" depart="144.0" departLane="random" departSpeed="10" arrivalLane="0"> <stop lane="TL2W_0" endPos="750" duration="6"/> </vehicle>
    <vehicle id="N_S_43" type="standard_car" route="N_S" depart="145.0" departLane="random" departSpeed="10" arrivalLane="3"> <stop lane="TL2S_3" endPos="750" duration="6"/> </vehicle>
    <vehicle id="S_N_44" type="standard_car" route="S_N" depart="147.0" departLane="random" departSpeed="10" arrivalLane="0"> <stop lane="TL2N_0" endPos="750" duration="6"/> </vehicle>
    <vehicle id="W_E_45" type="standard_car" route="W_E" depart="149.0" departLane="random" departSpeed="10" arrivalLane="2"> <stop lane="TL2E_2" endPos="750" duration="6"/> </vehicle>
    <vehicle id="E_N_46" type="standard_car" route="E_N" depart="149.0" departLane="random" departSpeed="10" arrivalLane="3"> <stop lane="TL2N_3" endPos="750" duration="6"/> </vehicle>
    <vehicle id="W_E_47" type="standard_car" route="W_E" depart="150.0" departLane="random" departSpeed="10" arrivalLane="0"> <stop lane="TL2E_0" endPos="750" duration="6"/> </vehicle>
    <vehicle id="W_E_48" type="standard_car" route="W_E" depart="156.0" departLane="random" departSpeed="10" arrivalLane="3"> <stop lane="TL2E_3" endPos="750" duration="6"/> </vehicle>
    <vehicle id="N_S_49" type="standard_car" route="N_S" depart="156.0" departLane="random" departSpeed="10" arrivalLane="2"> <stop lane="TL2S_2" endPos="750" duration="6"/> </vehicle>
    <vehicle id="E_W_50" type="standard_car" route="E_W" depart="157.0" departLane="random" departSpeed="10" arrivalLane="0"> <stop lane="TL2W_0" endPos="750" duration="6"/> </vehicle>
    <vehicle id="N_E_51" type="standard_car" route="N_E" depart="158.0" departLane="random" departSpeed="10" arrivalLane="1"> <stop lane="TL2E_1" endPos="750" duration="6"/> </vehicle>
    <vehicle id="S_N_52" type="standard_car" route="S_N" depart="158.0" departLane="random" departSpeed="10" arrivalLane="2"> <stop lane="TL2N_2" endPos="750" duration="6"/> </vehicle>
    <vehicle id="W_E_53" type="standard_car" route="W_E" depart="159.0" departLane="random" departSpeed="10" arrivalLane="1"> <stop lane="TL2E_1" endPos="750" duration="6"/> </vehicle>
    <vehicle id="S_N_54" type="standard_car" route="S_N" depart="159.0" departLane="random" departSpeed="10" arrivalLane="0"> <stop lane="TL2N_0" endPos="750" duration="6"/> </vehicle>
    <vehicle id="S_N_55" type="standard_car" route="S_N" depart="162.0" departLane="random" departSpeed="10" arrivalLane="0"> <stop lane="TL2N_0" endPos="750" duration="6"/> </vehicle>
    <vehicle id="S_E_56" type="standard_car" route="S_E" depart="162.0" departLane="random" departSpeed="10" arrivalLane="2"> <stop lane="TL2E_2" endPos="750" duration="6"/> </vehicle>
    <vehicle id="W_E_57" type="standard_car" route="W_E" depart="164.0" departLane="random" departSpeed="10" arrivalLane="0"> <stop lane="TL2E_0" endPos="750" duration="6"/> </vehicle>
    <vehicle id="E_W_58" type="standard_car" route="E_W" depart="166.0" departLane="random" departSpeed="10" arrivalLane="1"> <stop lane="TL2W_1" endPos="750" duration="6"/> </vehicle>
    <vehicle id="W_E_59" type="standard_car" route="W_E" depart="168.0" departLane="random" departSpeed="10" arrivalLane="1"> <stop lane="TL2E_1" endPos="750" duration="6"/> </vehicle>
    <vehicle id="W_E_60" type="standard_car" route="W_E" depart="169.0" departLane="random" departSpeed="10" arrivalLane="1"> <stop lane="TL2E_1" endPos="750" duration="6"/> </vehicle>
    <vehicle id="E_N_61" type="standard_car" route="E_N" depart="170.0" departLane="random" departSpeed="10" arrivalLane="1"> <stop lane="TL2N_1" endPos="750" duration="6"/> </vehicle>
    <vehicle id="W_E_62" type="standard_car" route="W_E" depart="170.0" departLane="random" departSpeed="10" arrivalLane="3"> <stop lane="TL2E_3" endPos="750" duration="6"/> </vehicle>
    <vehicle id="N_S_63" type="standard_car" route="N_S" depart="173.0" departLane="random" departSpeed="10" arrivalLane="3"> <stop lane="TL2S_3" endPos="750" duration="6"/> </vehicle>
    <vehicle id="S_W_64" type="standard_car" route="S_W" depart="173.0" departLane="random" departSpeed="10" arrivalLane="1"> <stop lane="TL2W_1" endPos="750" duration="6"/> </vehicle>
    <vehicle id="N_S_65" type="standard_car" route="N_S" depart="174.0" departLane="random" departSpeed="10" arrivalLane="2"> <stop lane="TL2S_2" endPos="750" duration="6"/> </vehicle>
    <vehicle id="W_E_66" type="standard_car" route="W_E" depart="176.0" departLane="random" departSpeed="10" arrivalLane="0"> <stop lane="TL2E_0" endPos="750" duration="6"/> </vehicle>
    <vehicle id="W_S_67" type="standard_car" route="W_S" depart="177.0" departLane="random" departSpeed="10" arrivalLane="2"> <stop lane="TL2S_2" endPos="750" duration="6"/> </vehicle>
    <vehicle id="W_E_68" type="standard_car" route="W_E" depart="177.0" departLane="random" departSpeed="10" arrivalLane="0"> <stop lane="TL2E_0" endPos="750" duration="6"/> </vehicle>
    <vehicle id="S_N_69" type="standard_car" route="S_N" depart="177.0" departLane="random" departSpeed="10" arrivalLane="3"> <stop lane="TL2N_3" endPos="750" duration="6"/> </vehicle>
    <vehicle id="S_N_70" type="standard_car" route="S_N" depart="178.0" departLane="random" departSpeed="10" arrivalLane="2"> <stop lane="TL2N_2" endPos="750" duration="6"/> </vehicle>
    <vehicle id="S_W_71" type="standard_car" route="S_W" depart="179.0" departLane="random" departSpeed="10" arrivalLane="1"> <stop lane="TL2W_1" endPos="750" duration="6"/> </vehicle>
    <vehicle id="N_S_72" type="standard_car" route="N_S" depart="181.0" departLane="random" departSpeed="10" arrivalLane="3"> <stop lane="TL2S_3" endPos="750" duration="6"/> </vehicle>
    <vehicle id="S_N_73" type="standard_car" route="S_N" depart="182.0" departLane="random" departSpeed="10" arrivalLane="0"> <stop lane="TL2N_0" endPos="750" duration="6"/> </vehicle>
    <vehicle id="E_W_74" type="standard_car" route="E_W" depart="183.0" departLane="random" departSpeed="10" arrivalLane="2"> <stop lane="TL2W_2" endPos="750" duration="6"/> </vehicle>
    <vehicle id="N_S_75" type="standard_car" route="N_S" depart="185.0" departLane="random" departSpeed="10" arrivalLane="2"> <stop lane="TL2S_2" endPos="750" duration="6"/> </vehicle>
    <vehicle id="N_S_76" type="standard_car" route="N_S" depart="186.0" departLane="random" departSpeed="10" arrivalLane="3"> <stop lane="TL2S_3" endPos="750" duration="6"/> </vehicle>
    <vehicle id="S_N_77" type="standard_car" route="S_N" depart="187.0" departLane="random" departSpeed="10" arrivalLane="1"> <stop lane="TL2N_1" endPos="750" duration="6"/> </vehicle>
    <vehicle id="E_W_78" type="standard_car" route="E_W" depart="188.0" departLane="random" departSpeed="10" arrivalLane="0"> <stop lane="TL2W_0" endPos="750" duration="6"/> </vehicle>
    <vehicle id="W_E_79" type="standard_car" route="W_E" depart="188.0" departLane="random" departSpeed="10" arrivalLane="1"> <stop lane="TL2E_1" endPos="750" duration="6"/> </vehicle>
    <vehicle id="S_N_80" type="standard_car" route="S_N" depart="188.0" departLane="random" departSpeed="10" arrivalLane="2"> <stop lane="TL2N_2" endPos="750" duration="6"/> </vehicle>
    <vehicle id="W_N_81" type="standard_car" route="W_N" depart="189.0" departLane="random" departSpeed="10" arrivalLane="0"> <stop lane="TL2N_0" endPos="750" duration="6"/> </vehicle>
    <vehicle id="W_E_82" type="standard_car" route="W_E" depart="190.0" departLane="random" departSpeed="10" arrivalLane="2"> <stop lane="TL2E_2" endPos="750" duration="6"/> </vehicle>
    <vehicle id="N_S_83" type="standard_car" route="N_S" depart="190.0" departLane="random" departSpeed="10" arrivalLane="1"> <stop lane="TL2S_1" endPos="750" duration="6"/> </vehicle>
    <vehicle id="E_N_84" type="standard_car" route="E_N" depart="192.0" departLane="random" departSpeed="10" arrivalLane="0"> <stop lane="TL2N_0" endPos="750" duration="6"/> </vehicle>
    <vehicle id="W_E_85" type="standard_car" route="W_E" depart="193.0" departLane="random" departSpeed="10" arrivalLane="3"> <stop lane="TL2E_3" endPos="750" duration="6"/> </vehicle>
    <vehicle id="E_W_86" type="standard_car" route="E_W" depart="194.0" departLane="random" departSpeed="10" arrivalLane="1"> <stop lane="TL2W_1" endPos="750" duration="6"/> </vehicle>
    <vehicle id="W_N_87" type="standard_car" route="W_N" depart="195.0" departLane="random" departSpeed="10" arrivalLane="0"> <stop lane="TL2N_0" endPos="750" duration="6"/> </vehicle>
    <vehicle id="W_E_88" type="standard_car" route="W_E" depart="196.0" departLane="random" departSpeed="10" arrivalLane="3"> <stop lane="TL2E_3" endPos="750" duration="6"/> </vehicle>
    <vehicle id="W_N_89" type="standard_car" route="W_N" depart="198.0" departLane="random" departSpeed="10" arrivalLane="2"> <stop lane="TL2N_2" endPos="750" duration="6"/> </vehicle>
    <vehicle id="N_E_90" type="standard_car" route="N_E" depart="201.0" departLane="random" departSpeed="10" arrivalLane="3"> <stop lane="TL2E_3" endPos="750" duration="6"/> </vehicle>
    <vehicle id="W_S_91" type="standard_car" route="W_S" depart="206.0" departLane="random" departSpeed="10" arrivalLane="2"> <stop lane="TL2S_2" endPos="750" duration="6"/> </vehicle>
    <vehicle id="W_E_92" type="standard_car" route="W_E" depart="207.0" departLane="random" departSpeed="10" arrivalLane="0"> <stop lane="TL2E_0" endPos="750" duration="6"/> </vehicle>
    <vehicle id="W_E_93" type="standard_car" route="W_E" depart="207.0" departLane="random" departSpeed="10" arrivalLane="1"> <stop lane="TL2E_1" endPos="750" duration="6"/> </vehicle>
    <vehicle id="N_S_94" type="standard_car" route="N_S" depart="212.0" departLane="random" departSpeed="10" arrivalLane="1"> <stop lane="TL2S_1" endPos="750" duration="6"/> </vehicle>
    <vehicle id="W_E_95" type="standard_car" route="W_E" depart="212.0" departLane="random" departSpeed="10" arrivalLane="1"> <stop lane="TL2E_1" endPos="750" duration="6"/> </vehicle>
    <vehicle id="E_W_96" type="standard_car" route="E_W" depart="213.0" departLane="random" departSpeed="10" arrivalLane="0"> <stop lane="TL2W_0" endPos="750" duration="6"/> </vehicle>
    <vehicle id="E_W_97" type="standard_car" route="E_W" depart="213.0" departLane="random" departSpeed="10" arrivalLane="1"> <stop lane="TL2W_1" endPos="750" duration="6"/> </vehicle>
    <vehicle id="N_S_98" type="standard_car" route="N_S" depart="213.0" departLane="random" departSpeed="10" arrivalLane="3"> <stop lane="TL2S_3" endPos="750" duration="6"/> </vehicle>
    <vehicle id="S_W_99" type="standard_car" route="S_W" depart="213.0" departLane="random" departSpeed="10" arrivalLane="1"> <stop lane="TL2W_1" endPos="750" duration="6"/> </vehicle>
    <vehicle id="E_N_100" type="standard_car" route="E_N" depart="213.0" departLane="random" departSpeed="10" arrivalLane="1"> <stop lane="TL2N_1" endPos="750" duration="6"/> </vehicle>
    <vehicle id="S_N_101" type="standard_car" route="S_N" depart="214.0" departLane="random" departSpeed="10" arrivalLane="1"> <stop lane="TL2N_1" endPos="750" duration="6"/> </vehicle>
    <vehicle id="S_N_102" type="standard_car" route="S_N" depart="215.0" departLane="random" departSpeed="10" arrivalLane="1"> <stop lane="TL2N_1" endPos="750" duration="6"/> </vehicle>
    <vehicle id="E_W_103" type="standard_car" route="E_W" depart="215.0" departLane="random" departSpeed="10" arrivalLane="1"> <stop lane="TL2W_1" endPos="750" duration="6"/> </vehicle>
    <vehicle id="W_E_104" type="standard_car" route="W_E" depart="216.0" departLane="random" departSpeed="10" arrivalLane="1"> <stop lane="TL2E_1" endPos="750" duration="6"/> </vehicle>
    <vehicle id="S_N_105" type="standard_car" route="S_N" depart="216.0" departLane="random" departSpeed="10" arrivalLane="2"> <stop lane="TL2N_2" endPos="750" duration="6"/> </vehicle>
    <vehicle id="S_N_106" type="standard_car" route="S_N" depart="216.0" departLane="random" departSpeed="10" arrivalLane="2"> <stop lane="TL2N_2" endPos="750" duration="6"/> </vehicle>
    <vehicle id="E_W_107" type="standard_car" route="E_W" depart="218.0" departLane="random" departSpeed="10" arrivalLane="1"> <stop lane="TL2W_1" endPos="750" duration="6"/> </vehicle>
    <vehicle id="W_E_108" type="standard_car" route="W_E" depart="218.0" departLane="random" departSpeed="10" arrivalLane="2"> <stop lane="TL2E_2" endPos="750" duration="6"/> </vehicle>
    <vehicle id="E_W_109" type="standard_car" route="E_W" depart="220.0" departLane="random" departSpeed="10" arrivalLane="2"> <stop lane="TL2W_2" endPos="750" duration="6"/> </vehicle>
    <vehicle id="N_S_110" type="standard_car" route="N_S" depart="221.0" departLane="random" departSpeed="10" arrivalLane="0"> <stop lane="TL2S_0" endPos="750" duration="6"/> </vehicle>
    <vehicle id="W_E_111" type="standard_car" route="W_E" depart="223.0" departLane="random" departSpeed="10" arrivalLane="2"> <stop lane="TL2E_2" endPos="750" duration="6"/> </vehicle>
    <vehicle id="W_E_112" type="standard_car" route="W_E" depart="224.0" departLane="random" departSpeed="10" arrivalLane="1"> <stop lane="TL2E_1" endPos="750" duration="6"/> </vehicle>
    <vehicle id="W_E_113" type="standard_car" route="W_E" depart="226.0" departLane="random" departSpeed="10" arrivalLane="0"> <stop lane="TL2E_0" endPos="750" duration="6"/> </vehicle>
    <vehicle id="S_N_114" type="standard_car" route="S_N" depart="226.0" departLane="random" departSpeed="10" arrivalLane="1"> <stop lane="TL2N_1" endPos="750" duration="6"/> </vehicle>
    <vehicle id="W_E_115" type="standard_car" route="W_E" depart="227.0" departLane="random" departSpeed="10" arrivalLane="2"> <stop lane="TL2E_2" endPos="750" duration="6"/> </vehicle>
    <vehicle id="W_E_116" type="standard_car" route="W_E" depart="228.0" departLane="random" departSpeed="10" arrivalLane="0"> <stop lane="TL2E_0" endPos="750" duration="6"/> </vehicle>
    <vehicle id="N_W_117" type="standard_car" route="N_W" depart="229.0" departLane="random" departSpeed="10" arrivalLane="2"> <stop lane="TL2W_2" endPos="750" duration="6"/> </vehicle>
    <vehicle id="N_S_118" type="standard_car" route="N_S" depart="229.0" departLane="random" departSpeed="10" arrivalLane="1"> <stop lane="TL2S_1" endPos="750" duration="6"/> </vehicle>
    <vehicle id="W_E_119" type="standard_car" route="W_E" depart="230.0" departLane="random" departSpeed="10" arrivalLane="1"> <stop lane="TL2E_1" endPos="750" duration="6"/> </vehicle>
    <vehicle id="N_S_120" type="standard_car" route="N_S" depart="231.0" departLane="random" departSpeed="10" arrivalLane="0"> <stop lane="TL2S_0" endPos="750" duration="6"/> </vehicle>
    <vehicle id="N_E_121" type="standard_car" route="N_E" depart="232.0" departLane="random" departSpeed="10" arrivalLane="2"> <stop lane="TL2E_2" endPos="750" duration="6"/> </vehicle>
    <vehicle id="E_W_122" type="standard_car" route="E_W" depart="232.0" departLane="random" departSpeed="10" arrivalLane="3"> <stop lane="TL2W_3" endPos="750" duration="6"/> </vehicle>
    <vehicle id="S_N_123" type="standard_car" route="S_N" depart="233.0" departLane="random" departSpeed="10" arrivalLane="1"> <stop lane="TL2N_1" endPos="750" duration="6"/> </vehicle>
    <vehicle id="E_S_124" type="standard_car" route="E_S" depart="233.0" departLane="random" departSpeed="10" arrivalLane="2"> <stop lane="TL2S_2" endPos="750" duration="6"/> </vehicle>
    <vehicle id="S_N_125" type="standard_car" route="S_N" depart="234.0" departLane="random" departSpeed="10" arrivalLane="3"> <stop lane="TL2N_3" endPos="750" duration="6"/> </vehicle>
    <vehicle id="S_W_126" type="standard_car" route="S_W" depart="235.0" departLane="random" departSpeed="10" arrivalLane="2"> <stop lane="TL2W_2" endPos="750" duration="6"/> </vehicle>
    <vehicle id="N_S_127" type="standard_car" route="N_S" depart="236.0" departLane="random" departSpeed="10" arrivalLane="3"> <stop lane="TL2S_3" endPos="750" duration="6"/> </vehicle>
    <vehicle id="W_S_128" type="standard_car" route="W_S" depart="237.0" departLane="random" departSpeed="10" arrivalLane="3"> <stop lane="TL2S_3" endPos="750" duration="6"/> </vehicle>
    <vehicle id="W_E_129" type="standard_car" route="W_E" depart="237.0" departLane="random" departSpeed="10" arrivalLane="3"> <stop lane="TL2E_3" endPos="750" duration="6"/> </vehicle>
    <vehicle id="N_S_130" type="standard_car" route="N_S" depart="237.0" departLane="random" departSpeed="10" arrivalLane="2"> <stop lane="TL2S_2" endPos="750" duration="6"/> </vehicle>
    <vehicle id="E_W_131" type="standard_car" route="E_W" depart="238.0" departLane="random" departSpeed="10" arrivalLane="3"> <stop lane="TL2W_3" endPos="750" duration="6"/> </vehicle>
    <vehicle id="S_N_132" type="standard_car" route="S_N" depart="241.0" departLane="random" departSpeed="10" arrivalLane="3"> <stop lane="TL2N_3" endPos="750" duration="6"/> </vehicle>
    <vehicle id="N_W_133" type="standard_car" route="N_W" depart="242.0" departLane="random" departSpeed="10" arrivalLane="0"> <stop lane="TL2W_0" endPos="750" duration="6"/> </vehicle>
    <vehicle id="W_E_134" type="standard_car" route="W_E" depart="243.0" departLane="random" departSpeed="10" arrivalLane="1"> <stop lane="TL2E_1" endPos="750" duration="6"/> </vehicle>
    <vehicle id="S_E_135" type="standard_car" route="S_E" depart="246.0" departLane="random" departSpeed="10" arrivalLane="2"> <stop lane="TL2E_2" endPos="750" duration="6"/> </vehicle>
    <vehicle id="E_W_136" type="standard_car" route="E_W" depart="246.0" departLane="random" departSpeed="10" arrivalLane="2"> <stop lane="TL2W_2" endPos="750" duration="6"/> </vehicle>
    <vehicle id="S_N_137" type="standard_car" route="S_N" depart="247.0" departLane="random" departSpeed="10" arrivalLane="1"> <stop lane="TL2N_1" endPos="750" duration="6"/> </vehicle>
    <vehicle id="N_W_138" type="standard_car" route="N_W" depart="248.0" departLane="random" departSpeed="10" arrivalLane="0"> <stop lane="TL2W_0" endPos="750" duration="6"/> </vehicle>
    <vehicle id="S_N_139" type="standard_car" route="S_N" depart="248.0" departLane="random" departSpeed="10" arrivalLane="1"> <stop lane="TL2N_1" endPos="750" duration="6"/> </vehicle>
    <vehicle id="E_W_140" type="standard_car" route="E_W" depart="249.0" departLane="random" departSpeed="10" arrivalLane="3"> <stop lane="TL2W_3" endPos="750" duration="6"/> </vehicle>
    <vehicle id="E_N_141" type="standard_car" route="E_N" depart="249.0" departLane="random" departSpeed="10" arrivalLane="1"> <stop lane="TL2N_1" endPos="750" duration="6"/> </vehicle>
    <vehicle id="N_S_142" type="standard_car" route="N_S" depart="251.0" departLane="random" departSpeed="10" arrivalLane="2"> <stop lane="TL2S_2" endPos="750" duration="6"/> </vehicle>
    <vehicle id="E_W_143" type="standard_car" route="E_W" depart="252.0" departLane="random" departSpeed="10" arrivalLane="2"> <stop lane="TL2W_2" endPos="750" duration="6"/> </vehicle>
    <vehicle id="N_S_144" type="standard_car" route="N_S" depart="255.0" departLane="random" departSpeed="10" arrivalLane="1"> <stop lane="TL2S_1" endPos="750" duration="6"/> </vehicle>
    <vehicle id="E_W_145" type="standard_car" route="E_W" depart="255.0" departLane="random" departSpeed="10" arrivalLane="1"> <stop lane="TL2W_1" endPos="750" duration="6"/> </vehicle>
    <vehicle id="E_N_146" type="standard_car" route="E_N" depart="256.0" departLane="random" departSpeed="10" arrivalLane="2"> <stop lane="TL2N_2" endPos="750" duration="6"/> </vehicle>
    <vehicle id="W_S_147" type="standard_car" route="W_S" depart="256.0" departLane="random" departSpeed="10" arrivalLane="2"> <stop lane="TL2S_2" endPos="750" duration="6"/> </vehicle>
    <vehicle id="S_N_148" type="standard_car" route="S_N" depart="257.0" departLane="random" departSpeed="10" arrivalLane="2"> <stop lane="TL2N_2" endPos="750" duration="6"/> </vehicle>
    <vehicle id="W_S_149" type="standard_car" route="W_S" depart="258.0" departLane="random" departSpeed="10" arrivalLane="2"> <stop lane="TL2S_2" endPos="750" duration="6"/> </vehicle>
    <vehicle id="S_N_150" type="standard_car" route="S_N" depart="259.0" departLane="random" departSpeed="10" arrivalLane="3"> <stop lane="TL2N_3" endPos="750" duration="6"/> </vehicle>
    <vehicle id="W_E_151" type="standard_car" route="W_E" depart="261.0" departLane="random" departSpeed="10" arrivalLane="3"> <stop lane="TL2E_3" endPos="750" duration="6"/> </vehicle>
    <vehicle id="E_W_152" type="standard_car" route="E_W" depart="262.0" departLane="random" departSpeed="10" arrivalLane="3"> <stop lane="TL2W_3" endPos="750" duration="6"/> </vehicle>
    <vehicle id="W_E_153" type="standard_car" route="W_E" depart="263.0" departLane="random" departSpeed="10" arrivalLane="3"> <stop lane="TL2E_3" endPos="750" duration="6"/> </vehicle>
    <vehicle id="S_N_154" type="standard_car" route="S_N" depart="263.0" departLane="random" departSpeed="10" arrivalLane="0"> <stop lane="TL2N_0" endPos="750" duration="6"/> </vehicle>
    <vehicle id="S_N_155" type="standard_car" route="S_N" depart="264.0" departLane="random" departSpeed="10" arrivalLane="1"> <stop lane="TL2N_1" endPos="750" duration="6"/> </vehicle>
    <vehicle id="E_W_156" type="standard_car" route="E_W" depart="266.0" departLane="random" departSpeed="10" arrivalLane="2"> <stop lane="TL2W_2" endPos="750" duration="6"/> </vehicle>
    <vehicle id="E_N_157" type="standard_car" route="E_N" depart="266.0" departLane="random" departSpeed="10" arrivalLane="1"> <stop lane="TL2N_1" endPos="750" duration="6"/> </vehicle>